Circuit: * C:\Users\Mark\Documents\Projects\Charge_Pump\CP_INIT.asc

WARNING: Node NC_01 is floating.

WARNING: Less than two connections to node NCLK.  This node is used by V3.
WARNING: Less than two connections to node NC_01.  This node is used by C10.
Direct Newton iteration for .op point succeeded.
Heightened Def Con from 0.0001985 to 0.0001985
Heightened Def Con from 0.0001985 to 0.0001985
Heightened Def Con from 0.0001985 to 0.000198502
Heightened Def Con from 0.00021801 to 0.00021801
Heightened Def Con from 0.00021801 to 0.00021801
Heightened Def Con from 0.00021801 to 0.00021801
Heightened Def Con from 0.00021801 to 0.000218018
Heightened Def Con from 0.00026651 to 0.00026652
Heightened Def Con from 0.00027852 to 0.00027852
Heightened Def Con from 0.00027852 to 0.000278523
Heightened Def Con from 0.000315519 to 0.00031552
Heightened Def Con from 0.000377 to 0.000377003
Heightened Def Con from 0.000465 to 0.000465003
Heightened Def Con from 0.00049652 to 0.00049652
Heightened Def Con from 0.000600513 to 0.000600513

Date: Wed Jan 05 16:33:46 2022
Total elapsed time: 8.069 seconds.

tnom = 27
temp = 27
method = modified trap
totiter = 967279
traniter = 967266
tranpoints = 263422
accept = 197562
rejected = 65875
matrix size = 48
fillins = 26
solver = Normal
Matrix Compiler1: 4.67 KB object code size  0.9/0.6/[0.3]
Matrix Compiler2: 4.40 KB object code size  0.4/0.7/[0.3]

